

.PROBE TRAN
+    V(c)
+    V(b)
+    V(a)
+    V(out)
.TRAN 1e-12 300e-12 START=0.0

.TEMP 25.0
.OPTION
+    ARTIST=2
+    INGOLD=2
+    PARHIER=LOCAL
+    PSF=2
